AeroDyn\AeroDyn.f90
AeroDyn\AeroDyn_IO.f90
AeroDyn\AeroDyn_Types.f90
AeroDyn\AeroDyn_Registry.txt

Airfoil_Info\AirfoilInfo.f90
Airfoil_Info\AirfoilInfo_Registry.txt
Airfoil_Info\AirfoilInfo_Types.f90

BEMT\BEMT.f90
BEMT\BEMT_Registry.txt
BEMT\BEMT_Types.f90
BEMT\BEMTUncoupled.f90
BEMT\fmin_fcn.f90
BEMT\mod_root1dim.f90

UnsteadyAero\UnsteadyAero.f90
UnsteadyAero\UnsteadyAero_Registry.txt
UnsteadyAero\UnsteadyAero_Types.f90

