-----  AeroDyn Driver v1.00.x Input File  -----------------------------------------------
BEMT input file.  UAE Phase 3 turbine (BEM).
-----  Input Configuration  ----------------------------------------------------
False                Echo:                      Echo input parameters to "<rootname>.ech"?
"Test01_UAE_AeroDyn.dat"  AD_InputFile:              Name of the primary AeroDyn input file
-----  Turbine Data  -----------------------------------------------------------
2                    NumBlade:                  Number of blades.
0.432                HubRad:                    Hub radius [length or div by radius].
12.192               HubHt:                     Hub height [length or div by radius].
-----  I/O Settings  -----------------------------------------------------------
"Test01"             OutFileRoot                Root name for any output files
True                 TabDel:                    When generating formatted output (OutForm=True), make output tab-delimited (fixed-width otherwise).
True                 Beep:                      Beep on exit.
False                InputTSR:                  Input speeds as TSRs?
-----  Combined-Case Analysis  -------------------------------------------------
1                    NumCases:                  Number of cases to run.
WS or TSR   ShearExp   RotSpd   Pitch     Yaw      Tilt    Precone   initial_Azimuth_Angle   dT       Tmax
(m/s or -)    (-)       (rpm)   (deg)    (deg)     (deg)    (deg)      (deg)                (s)       (s)
5             0.0       71.9     3.0      0.0       0.0     0.0        0.0                  0.0397    0.8345
